<?xml version="1.0" encoding="UTF-8"?>

<!-- generated on 2022-08-16 16:37:57 by Eclipse SUMO netedit Version 1.13.0
<configuration xmlns:xsi="http://www.w3.org/2001/XMLSchema-instance" xsi:noNamespaceSchemaLocation="http://sumo.dlr.de/xsd/netconvertConfiguration.xsd">

    <input>
        <sumo-net-file value="politecnico.net.xml"/>
    </input>

    <output>
        <output-file value="politecnico.net.xml"/>
    </output>

    <processing>
        <geometry.min-radius.fix.railways value="false"/>
        <geometry.max-grade.fix value="false"/>
        <offset.disable-normalization value="true"/>
        <lefthand value="false"/>
    </processing>

    <junctions>
        <no-turnarounds value="true"/>
        <junctions.corner-detail value="5"/>
        <junctions.limit-turn-speed value="5.5"/>
        <rectangular-lane-cut value="false"/>
    </junctions>

    <pedestrian>
        <walkingareas value="false"/>
    </pedestrian>

    <report>
        <aggregate-warnings value="5"/>
    </report>

</configuration>
-->

<net version="1.9" junctionCornerDetail="5" limitTurnSpeed="5.50" xmlns:xsi="http://www.w3.org/2001/XMLSchema-instance" xsi:noNamespaceSchemaLocation="http://sumo.dlr.de/xsd/net_file.xsd">

    <location netOffset="-676648.33,2817233.42" convBoundary="0.00,0.00,2009.54,2246.05" origBoundary="-49.243118,-25.461543,-49.223210,-25.441188" projParameter="+proj=utm +zone=22 +ellps=WGS84 +datum=WGS84 +units=m +no_defs"/>

    <type id="highway.bridleway" priority="1" numLanes="1" speed="2.78" allow="pedestrian" oneway="1" width="2.00"/>
    <type id="highway.bus_guideway" priority="1" numLanes="1" speed="27.78" allow="bus" oneway="1"/>
    <type id="highway.cycleway" priority="1" numLanes="1" speed="8.33" allow="bicycle" oneway="0" width="1.00"/>
    <type id="highway.footway" priority="1" numLanes="1" speed="2.78" allow="pedestrian" oneway="1" width="2.00"/>
    <type id="highway.ford" priority="1" numLanes="1" speed="2.78" allow="army" oneway="0"/>
    <type id="highway.living_street" priority="2" numLanes="1" speed="2.78" disallow="tram rail_urban rail rail_electric rail_fast ship" oneway="0"/>
    <type id="highway.motorway" priority="14" numLanes="2" speed="39.44" allow="private emergency authority army vip passenger hov taxi bus coach delivery truck trailer motorcycle evehicle custom1 custom2" oneway="1"/>
    <type id="highway.motorway_link" priority="9" numLanes="1" speed="22.22" allow="private emergency authority army vip passenger hov taxi bus coach delivery truck trailer motorcycle evehicle custom1 custom2" oneway="1"/>
    <type id="highway.path" priority="1" numLanes="1" speed="2.78" allow="pedestrian bicycle" oneway="0" width="2.00"/>
    <type id="highway.pedestrian" priority="1" numLanes="1" speed="2.78" allow="pedestrian" oneway="1" width="2.00"/>
    <type id="highway.primary" priority="12" numLanes="2" speed="27.78" disallow="tram rail_urban rail rail_electric rail_fast ship" oneway="0"/>
    <type id="highway.primary_link" priority="7" numLanes="1" speed="22.22" disallow="tram rail_urban rail rail_electric rail_fast ship" oneway="0"/>
    <type id="highway.raceway" priority="15" numLanes="2" speed="83.33" allow="vip" oneway="0"/>
    <type id="highway.residential" priority="3" numLanes="1" speed="13.89" disallow="tram rail_urban rail rail_electric rail_fast ship" oneway="0"/>
    <type id="highway.secondary" priority="11" numLanes="1" speed="27.78" disallow="tram rail_urban rail rail_electric rail_fast ship" oneway="0"/>
    <type id="highway.secondary_link" priority="6" numLanes="1" speed="22.22" disallow="tram rail_urban rail rail_electric rail_fast ship" oneway="0"/>
    <type id="highway.service" priority="1" numLanes="1" speed="5.56" allow="pedestrian delivery bicycle" oneway="0"/>
    <type id="highway.stairs" priority="1" numLanes="1" speed="1.39" allow="pedestrian" oneway="1" width="2.00"/>
    <type id="highway.step" priority="1" numLanes="1" speed="1.39" allow="pedestrian" oneway="1" width="2.00"/>
    <type id="highway.steps" priority="1" numLanes="1" speed="1.39" allow="pedestrian" oneway="1" width="2.00"/>
    <type id="highway.tertiary" priority="10" numLanes="1" speed="22.22" disallow="tram rail_urban rail rail_electric rail_fast ship" oneway="0"/>
    <type id="highway.tertiary_link" priority="5" numLanes="1" speed="22.22" disallow="tram rail_urban rail rail_electric rail_fast ship" oneway="0"/>
    <type id="highway.track" priority="1" numLanes="1" speed="5.56" allow="pedestrian motorcycle moped bicycle" oneway="0"/>
    <type id="highway.trunk" priority="13" numLanes="2" speed="27.78" disallow="pedestrian bicycle tram rail_urban rail rail_electric rail_fast ship" oneway="0"/>
    <type id="highway.trunk_link" priority="8" numLanes="1" speed="22.22" disallow="pedestrian bicycle tram rail_urban rail rail_electric rail_fast ship" oneway="0"/>
    <type id="highway.unclassified" priority="4" numLanes="1" speed="13.89" disallow="tram rail_urban rail rail_electric rail_fast ship" oneway="0"/>
    <type id="highway.unsurfaced" priority="1" numLanes="1" speed="8.33" disallow="tram rail_urban rail rail_electric rail_fast ship" oneway="0"/>
    <type id="railway.highspeed" priority="21" numLanes="1" speed="69.44" allow="rail_fast" oneway="1"/>
    <type id="railway.light_rail" priority="19" numLanes="1" speed="27.78" allow="rail_urban" oneway="1"/>
    <type id="railway.preserved" priority="16" numLanes="1" speed="27.78" allow="rail" oneway="1"/>
    <type id="railway.rail" priority="20" numLanes="1" speed="44.44" allow="rail" oneway="1"/>
    <type id="railway.subway" priority="18" numLanes="1" speed="27.78" allow="rail_urban" oneway="1"/>
    <type id="railway.tram" priority="17" numLanes="1" speed="13.89" allow="tram" oneway="1"/>

    <edge id=":1298364042_0" function="internal">
        <lane id=":1298364042_0_0" index="0" disallow="pedestrian bicycle tram rail_urban rail rail_electric rail_fast ship" speed="22.22" length="0.29" shape="1539.45,1194.40 1539.30,1194.62"/>
        <lane id=":1298364042_0_1" index="1" disallow="pedestrian bicycle tram rail_urban rail rail_electric rail_fast ship" speed="22.22" length="0.29" shape="1536.83,1192.56 1536.65,1192.82"/>
    </edge>
    <edge id=":1298364043_0" function="internal">
        <lane id=":1298364043_0_0" index="0" disallow="pedestrian bicycle tram rail_urban rail rail_electric rail_fast ship" speed="22.22" length="8.49" shape="1520.45,1222.48 1519.68,1224.95 1520.30,1227.00 1520.95,1229.07 1520.27,1231.60"/>
        <lane id=":1298364043_0_1" index="1" disallow="pedestrian bicycle tram rail_urban rail rail_electric rail_fast ship" speed="22.22" length="8.49" shape="1520.45,1222.48 1519.34,1224.56 1518.94,1226.16 1518.56,1227.79 1517.54,1229.92"/>
        <lane id=":1298364043_0_2" index="2" disallow="pedestrian bicycle tram rail_urban rail rail_electric rail_fast ship" speed="22.22" length="8.49" shape="1520.45,1222.48 1518.91,1224.30 1517.58,1225.33 1516.27,1226.37 1514.82,1228.25"/>
        <lane id=":1298364043_0_3" index="3" disallow="pedestrian bicycle tram rail_urban rail rail_electric rail_fast ship" speed="22.22" length="8.49" shape="1517.80,1220.68 1516.24,1222.54 1514.89,1223.59 1513.57,1224.65 1512.09,1226.57"/>
    </edge>
    <edge id=":1298364045_0" function="internal">
        <lane id=":1298364045_0_0" index="0" disallow="pedestrian bicycle tram rail_urban rail rail_electric rail_fast ship" speed="22.22" length="0.30" shape="1525.35,1188.22 1525.52,1187.97"/>
        <lane id=":1298364045_0_1" index="1" disallow="pedestrian bicycle tram rail_urban rail rail_electric rail_fast ship" speed="22.22" length="0.30" shape="1527.96,1190.07 1528.13,1189.83"/>
    </edge>
    <edge id=":1298364047_0" function="internal">
        <lane id=":1298364047_0_0" index="0" disallow="pedestrian bicycle tram rail_urban rail rail_electric rail_fast ship" speed="22.22" length="0.30" shape="1504.85,1217.19 1505.03,1216.94"/>
        <lane id=":1298364047_0_1" index="1" disallow="pedestrian bicycle tram rail_urban rail rail_electric rail_fast ship" speed="22.22" length="0.30" shape="1507.47,1219.03 1507.64,1218.79"/>
    </edge>
    <edge id=":1387597065_0" function="internal">
        <lane id=":1387597065_0_0" index="0" disallow="tram rail_urban rail rail_electric rail_fast ship" speed="11.11" length="0.10" shape="1572.52,1089.50 1572.52,1089.50"/>
        <lane id=":1387597065_0_1" index="1" disallow="tram rail_urban rail rail_electric rail_fast ship" speed="11.11" length="0.10" shape="1570.32,1091.84 1570.32,1091.84"/>
    </edge>
    <edge id=":1387597081_0" function="internal">
        <lane id=":1387597081_0_0" index="0" disallow="tram rail_urban rail rail_electric rail_fast ship" speed="27.78" length="3.09" shape="1458.24,1335.62 1456.41,1338.11"/>
    </edge>
    <edge id=":1387597081_1" function="internal">
        <lane id=":1387597081_1_0" index="0" disallow="tram rail_urban rail rail_electric rail_fast ship" speed="27.78" length="3.13" shape="1455.47,1333.64 1453.79,1336.27"/>
    </edge>
    <edge id=":1387597087_0" function="internal">
        <lane id=":1387597087_0_0" index="0" disallow="bicycle tram rail_urban rail rail_electric rail_fast ship" speed="6.38" length="6.79" shape="1485.83,1283.06 1484.89,1284.73 1484.54,1286.33 1484.78,1287.87 1485.61,1289.33"/>
        <lane id=":1387597087_0_1" index="1" disallow="bicycle tram rail_urban rail rail_electric rail_fast ship" speed="7.29" length="9.12" shape="1485.83,1283.06 1484.01,1285.87 1482.94,1288.18 1482.64,1289.99 1483.09,1291.30"/>
    </edge>
    <edge id=":1387597087_2" function="internal">
        <lane id=":1387597087_2_0" index="0" disallow="bicycle tram rail_urban rail rail_electric rail_fast ship" speed="25.00" length="12.90" shape="1485.83,1283.06 1483.84,1285.84 1482.12,1288.34 1480.48,1290.88 1478.72,1293.81"/>
    </edge>
    <edge id=":1387597092_0" function="internal">
        <lane id=":1387597092_0_0" index="0" disallow="tram rail_urban rail rail_electric rail_fast ship" speed="6.45" length="9.03" shape="1437.57,676.70 1436.25,674.62 1434.57,673.49 1432.54,673.30 1430.15,674.05"/>
    </edge>
    <edge id=":1387597092_1" function="internal">
        <lane id=":1387597092_1_0" index="0" disallow="tram rail_urban rail rail_electric rail_fast ship" speed="13.89" length="14.51" shape="1437.57,676.70 1431.64,663.46"/>
    </edge>
    <edge id=":1387597092_2" function="internal">
        <lane id=":1387597092_2_0" index="0" disallow="tram rail_urban rail rail_electric rail_fast ship" speed="8.08" length="4.05" shape="1437.57,676.70 1436.50,672.96 1436.52,672.80"/>
    </edge>
    <edge id=":1387597092_3" function="internal">
        <lane id=":1387597092_3_0" index="0" disallow="tram rail_urban rail rail_electric rail_fast ship" speed="3.65" length="1.44" shape="1437.57,676.70 1437.81,675.28"/>
    </edge>
    <edge id=":1387597092_16" function="internal">
        <lane id=":1387597092_16_0" index="0" disallow="tram rail_urban rail rail_electric rail_fast ship" speed="8.08" length="10.28" shape="1436.52,672.80 1436.90,669.74 1438.75,667.07 1442.07,664.92"/>
    </edge>
    <edge id=":1387597092_17" function="internal">
        <lane id=":1387597092_17_0" index="0" disallow="tram rail_urban rail rail_electric rail_fast ship" speed="3.65" length="3.23" shape="1437.81,675.28 1438.38,674.59 1439.27,674.62 1440.49,675.39"/>
    </edge>
    <edge id=":1387597092_4" function="internal">
        <lane id=":1387597092_4_0" index="0" disallow="tram rail_urban rail rail_electric rail_fast ship" speed="6.57" length="9.13" shape="1443.30,667.87 1441.21,669.23 1440.04,670.94 1439.80,672.99 1440.49,675.39"/>
    </edge>
    <edge id=":1387597092_5" function="internal">
        <lane id=":1387597092_5_0" index="0" disallow="tram rail_urban rail rail_electric rail_fast ship" speed="13.89" length="14.53" shape="1443.30,667.87 1430.15,674.05"/>
    </edge>
    <edge id=":1387597092_6" function="internal">
        <lane id=":1387597092_6_0" index="0" disallow="tram rail_urban rail rail_electric rail_fast ship" speed="7.98" length="14.27" shape="1443.30,667.87 1439.57,668.99 1436.38,668.63 1433.73,666.79 1431.64,663.46"/>
    </edge>
    <edge id=":1387597092_7" function="internal">
        <lane id=":1387597092_7_0" index="0" disallow="tram rail_urban rail rail_electric rail_fast ship" speed="3.65" length="4.68" shape="1443.30,667.87 1441.88,667.60 1441.21,667.01 1441.27,666.12 1442.07,664.92"/>
    </edge>
    <edge id=":1387597092_8" function="internal">
        <lane id=":1387597092_8_0" index="0" disallow="tram rail_urban rail rail_electric rail_fast ship" speed="6.52" length="9.16" shape="1434.56,662.15 1435.90,664.26 1437.60,665.43 1439.65,665.65 1442.07,664.92"/>
    </edge>
    <edge id=":1387597092_9" function="internal">
        <lane id=":1387597092_9_0" index="0" disallow="tram rail_urban rail rail_electric rail_fast ship" speed="13.89" length="14.51" shape="1434.56,662.15 1440.49,675.39"/>
    </edge>
    <edge id=":1387597092_10" function="internal">
        <lane id=":1387597092_10_0" index="0" disallow="tram rail_urban rail rail_electric rail_fast ship" speed="8.13" length="4.10" shape="1434.56,662.15 1435.64,665.92 1435.62,666.09"/>
    </edge>
    <edge id=":1387597092_11" function="internal">
        <lane id=":1387597092_11_0" index="0" disallow="tram rail_urban rail rail_electric rail_fast ship" speed="3.65" length="1.44" shape="1434.56,662.15 1434.32,663.57"/>
    </edge>
    <edge id=":1387597092_18" function="internal">
        <lane id=":1387597092_18_0" index="0" disallow="tram rail_urban rail rail_electric rail_fast ship" speed="8.13" length="10.30" shape="1435.62,666.09 1435.27,669.16 1433.44,671.87 1430.15,674.05"/>
    </edge>
    <edge id=":1387597092_19" function="internal">
        <lane id=":1387597092_19_0" index="0" disallow="tram rail_urban rail rail_electric rail_fast ship" speed="3.65" length="3.23" shape="1434.32,663.57 1433.75,664.26 1432.86,664.23 1431.64,663.46"/>
    </edge>
    <edge id=":1387597092_12" function="internal">
        <lane id=":1387597092_12_0" index="0" disallow="tram rail_urban rail rail_electric rail_fast ship" speed="6.69" length="9.42" shape="1428.68,671.21 1430.85,669.78 1432.07,668.01 1432.33,665.90 1431.64,663.46"/>
    </edge>
    <edge id=":1387597092_13" function="internal">
        <lane id=":1387597092_13_0" index="0" disallow="tram rail_urban rail rail_electric rail_fast ship" speed="13.89" length="14.79" shape="1428.68,671.21 1442.07,664.92"/>
    </edge>
    <edge id=":1387597092_14" function="internal">
        <lane id=":1387597092_14_0" index="0" disallow="tram rail_urban rail rail_electric rail_fast ship" speed="7.98" length="14.37" shape="1428.68,671.21 1432.49,670.01 1435.73,670.30 1438.39,672.10 1440.49,675.39"/>
    </edge>
    <edge id=":1387597092_15" function="internal">
        <lane id=":1387597092_15_0" index="0" disallow="tram rail_urban rail rail_electric rail_fast ship" speed="3.65" length="4.68" shape="1428.68,671.21 1430.11,671.37 1430.83,671.90 1430.85,672.79 1430.15,674.05"/>
    </edge>
    <edge id=":1387597095_0" function="internal">
        <lane id=":1387597095_0_0" index="0" disallow="tram rail_urban rail rail_electric rail_fast ship" speed="16.03" length="5.66" shape="1484.55,1316.89 1482.88,1316.86 1481.72,1316.92 1480.60,1317.17 1479.02,1317.74"/>
    </edge>
    <edge id=":1387597095_1" function="internal">
        <lane id=":1387597095_1_0" index="0" disallow="tram rail_urban rail rail_electric rail_fast ship" speed="6.00" length="5.09" shape="1481.57,1313.67 1481.34,1315.11 1480.84,1316.27 1480.07,1317.14 1479.02,1317.74"/>
    </edge>
    <edge id=":1387597098_0" function="internal">
        <lane id=":1387597098_0_0" index="0" disallow="tram rail_urban rail rail_electric rail_fast ship" speed="27.78" length="5.79" shape="1496.87,1317.87 1495.22,1317.41 1494.06,1317.17 1492.89,1317.07 1491.17,1317.02"/>
    </edge>
    <edge id=":1387597098_1" function="internal">
        <lane id=":1387597098_1_0" index="0" disallow="tram rail_urban rail rail_electric rail_fast ship" speed="5.31" length="4.91" shape="1496.87,1317.87 1495.69,1317.34 1494.90,1316.54 1494.48,1315.47 1494.45,1314.12"/>
    </edge>
    <edge id=":1387619007_0" function="internal">
        <lane id=":1387619007_0_0" index="0" allow="pedestrian delivery bicycle" speed="3.65" length="4.67" shape="639.38,1560.18 640.58,1560.99 640.97,1561.79 640.56,1562.59 639.35,1563.38"/>
    </edge>
    <edge id=":1387619019_0" function="internal">
        <lane id=":1387619019_0_0" index="0" allow="pedestrian delivery bicycle" speed="5.56" length="4.44" shape="598.66,1566.88 597.36,1567.02 596.47,1567.20 595.61,1567.48 594.36,1567.91"/>
    </edge>
    <edge id=":1387619019_1" function="internal">
        <lane id=":1387619019_1_0" index="0" allow="pedestrian delivery bicycle" speed="3.65" length="1.44" shape="598.66,1566.88 597.40,1566.19"/>
    </edge>
    <edge id=":1387619019_4" function="internal">
        <lane id=":1387619019_4_0" index="0" allow="pedestrian delivery bicycle" speed="3.65" length="3.23" shape="597.40,1566.19 596.93,1565.43 597.26,1564.59 598.39,1563.70"/>
    </edge>
    <edge id=":1387619019_2" function="internal">
        <lane id=":1387619019_2_0" index="0" allow="pedestrian delivery bicycle" speed="5.56" length="5.21" shape="593.34,1564.87 594.81,1564.37 595.82,1564.06 596.86,1563.86 598.39,1563.70"/>
    </edge>
    <edge id=":1387619019_3" function="internal">
        <lane id=":1387619019_3_0" index="0" allow="pedestrian delivery bicycle" speed="3.65" length="1.44" shape="593.34,1564.87 594.74,1565.25"/>
    </edge>
    <edge id=":1387619019_5" function="internal">
        <lane id=":1387619019_5_0" index="0" allow="pedestrian delivery bicycle" speed="3.65" length="3.23" shape="594.74,1565.25 595.37,1565.88 595.25,1566.77 594.36,1567.91"/>
    </edge>
    <edge id=":1387619042_0" function="internal">
        <lane id=":1387619042_0_0" index="0" allow="pedestrian delivery bicycle" speed="4.84" length="5.20" shape="1005.10,1376.66 1004.49,1375.29 1003.63,1374.54 1002.51,1374.39 1001.15,1374.85"/>
    </edge>
    <edge id=":1387619042_1" function="internal">
        <lane id=":1387619042_1_0" index="0" allow="pedestrian delivery bicycle" speed="5.56" length="6.53" shape="1005.10,1376.66 1003.21,1370.41"/>
    </edge>
    <edge id=":1387619042_2" function="internal">
        <lane id=":1387619042_2_0" index="0" allow="pedestrian delivery bicycle" speed="5.56" length="6.53" shape="1007.16,1372.31 1005.35,1373.00 1004.10,1373.46 1002.89,1373.99 1001.15,1374.85"/>
    </edge>
    <edge id=":1387619042_3" function="internal">
        <lane id=":1387619042_3_0" index="0" allow="pedestrian delivery bicycle" speed="4.97" length="5.08" shape="1007.16,1372.31 1005.79,1372.63 1004.68,1372.42 1003.82,1371.67 1003.21,1370.41"/>
    </edge>
    <edge id=":1392806296_0" function="internal">
        <lane id=":1392806296_0_0" index="0" disallow="tram rail_urban rail rail_electric rail_fast ship" speed="8.86" length="1.97" shape="1150.45,943.58 1149.87,943.62 1149.46,943.61 1149.07,943.52 1148.52,943.34"/>
    </edge>
    <edge id=":1392806296_1" function="internal">
        <lane id=":1392806296_1_0" index="0" disallow="tram rail_urban rail rail_electric rail_fast ship" speed="13.89" length="0.66" shape="1149.55,940.31 1149.73,940.37 1149.86,940.40 1150.00,940.41 1150.19,940.39"/>
    </edge>
    <edge id=":1392806316_0" function="internal">
        <lane id=":1392806316_0_0" index="0" disallow="tram rail_urban rail rail_electric rail_fast ship" speed="3.65" length="4.67" shape="983.26,419.19 983.54,417.77 984.12,417.09 985.01,417.15 986.22,417.95"/>
    </edge>
    <edge id=":1392806700_0" function="internal">
        <lane id=":1392806700_0_0" index="0" disallow="tram rail_urban rail rail_electric rail_fast ship" speed="3.65" length="4.67" shape="901.26,459.07 901.52,457.65 902.10,456.97 902.99,457.02 904.20,457.81"/>
    </edge>
    <edge id=":1409059525_0" function="internal">
        <lane id=":1409059525_0_0" index="0" disallow="tram rail_urban rail rail_electric rail_fast ship" speed="3.65" length="4.67" shape="1196.58,1819.94 1195.34,1820.68 1194.44,1820.70 1193.89,1819.99 1193.68,1818.56"/>
    </edge>
    <edge id=":1409059527_0" function="internal">
        <lane id=":1409059527_0_0" index="0" disallow="tram rail_urban rail rail_electric rail_fast ship" speed="5.58" length="9.36" shape="1470.78,1720.92 1469.93,1718.18 1468.60,1716.95 1466.81,1717.22 1464.56,1718.99"/>
    </edge>
    <edge id=":1409059527_1" function="internal">
        <lane id=":1409059527_1_0" index="0" disallow="tram rail_urban rail rail_electric rail_fast ship" speed="12.95" length="16.05" shape="1470.78,1720.92 1470.17,1715.94 1470.24,1711.68 1470.99,1708.14 1472.41,1705.33"/>
    </edge>
    <edge id=":1409059527_2" function="internal">
        <lane id=":1409059527_2_0" index="0" disallow="tram rail_urban rail rail_electric rail_fast ship" speed="3.65" length="4.67" shape="1470.78,1720.92 1471.36,1719.60 1472.08,1719.07 1472.93,1719.32 1473.93,1720.36"/>
    </edge>
    <edge id=":1409059527_3" function="internal">
        <lane id=":1409059527_3_0" index="0" disallow="tram rail_urban rail rail_electric rail_fast ship" speed="11.90" length="13.50" shape="1475.01,1707.21 1473.91,1709.45 1473.37,1712.39 1473.37,1716.03 1473.93,1720.36"/>
    </edge>
    <edge id=":1409059527_4" function="internal">
        <lane id=":1409059527_4_0" index="0" disallow="tram rail_urban rail rail_electric rail_fast ship" speed="13.89" length="15.76" shape="1475.01,1707.21 1472.63,1710.26 1470.00,1713.28 1467.26,1716.22 1464.56,1718.99"/>
    </edge>
    <edge id=":1409059527_5" function="internal">
        <lane id=":1409059527_5_0" index="0" disallow="tram rail_urban rail rail_electric rail_fast ship" speed="3.65" length="1.44" shape="1475.01,1707.21 1473.65,1707.71"/>
    </edge>
    <edge id=":1409059527_9" function="internal">
        <lane id=":1409059527_9_0" index="0" disallow="tram rail_urban rail rail_electric rail_fast ship" speed="3.65" length="3.23" shape="1473.65,1707.71 1472.77,1707.57 1472.36,1706.77 1472.41,1705.33"/>
    </edge>
    <edge id=":1409059527_6" function="internal">
        <lane id=":1409059527_6_0" index="0" disallow="tram rail_urban rail rail_electric rail_fast ship" speed="13.89" length="15.28" shape="1462.28,1716.75 1464.93,1714.03 1467.56,1711.22 1470.09,1708.32 1472.41,1705.33"/>
    </edge>
    <edge id=":1409059527_7" function="internal">
        <lane id=":1409059527_7_0" index="0" disallow="tram rail_urban rail rail_electric rail_fast ship" speed="7.38" length="5.15" shape="1462.28,1716.75 1466.32,1713.57"/>
    </edge>
    <edge id=":1409059527_8" function="internal">
        <lane id=":1409059527_8_0" index="0" disallow="tram rail_urban rail rail_electric rail_fast ship" speed="3.65" length="1.44" shape="1462.28,1716.75 1463.69,1716.46"/>
    </edge>
    <edge id=":1409059527_10" function="internal">
        <lane id=":1409059527_10_0" index="0" disallow="tram rail_urban rail rail_electric rail_fast ship" speed="7.38" length="12.38" shape="1466.32,1713.57 1466.50,1713.42 1469.85,1712.92 1472.33,1715.23 1473.93,1720.36"/>
    </edge>
    <edge id=":1409059527_11" function="internal">
        <lane id=":1409059527_11_0" index="0" disallow="tram rail_urban rail rail_electric rail_fast ship" speed="3.65" length="3.23" shape="1463.69,1716.46 1464.54,1716.73 1464.83,1717.58 1464.56,1718.99"/>
    </edge>
    <edge id=":1678993021_0" function="internal">
        <lane id=":1678993021_0_0" index="0" disallow="tram rail_urban rail rail_electric rail_fast ship" speed="3.65" length="4.67" shape="2008.78,1477.33 2010.22,1477.47 2010.95,1477.98 2010.98,1478.87 2010.30,1480.15"/>
    </edge>
    <edge id=":1679098001_0" function="internal">
        <lane id=":1679098001_0_0" index="0" disallow="tram rail_urban rail rail_electric rail_fast ship" speed="3.65" length="4.67" shape="1612.96,1752.61 1612.09,1753.76 1611.27,1754.12 1610.49,1753.67 1609.76,1752.43"/>
    </edge>
    <edge id=":1679942608_0" function="internal">
        <lane id=":1679942608_0_0" index="0" disallow="tram rail_urban rail rail_electric rail_fast ship" speed="3.65" length="4.67" shape="1322.26,1900.90 1321.70,1902.23 1320.99,1902.77 1320.13,1902.53 1319.12,1901.50"/>
    </edge>
    <edge id=":1679942640_0" function="internal">
        <lane id=":1679942640_0_0" index="0" disallow="tram rail_urban rail rail_electric rail_fast ship" speed="6.56" length="7.67" shape="1519.11,1660.41 1517.23,1659.59 1515.44,1659.48 1513.75,1660.06 1512.16,1661.35"/>
    </edge>
    <edge id=":1679942640_1" function="internal">
        <lane id=":1679942640_1_0" index="0" disallow="tram rail_urban rail rail_electric rail_fast ship" speed="12.88" length="11.76" shape="1519.11,1660.41 1516.38,1658.62 1514.43,1656.85 1512.94,1654.70 1511.61,1651.74"/>
    </edge>
    <edge id=":1679942640_2" function="internal">
        <lane id=":1679942640_2_0" index="0" disallow="tram rail_urban rail rail_electric rail_fast ship" speed="3.65" length="1.44" shape="1519.11,1660.41 1518.49,1659.10"/>
    </edge>
    <edge id=":1679942640_9" function="internal">
        <lane id=":1679942640_9_0" index="0" disallow="tram rail_urban rail rail_electric rail_fast ship" speed="3.65" length="3.23" shape="1518.49,1659.10 1518.56,1658.21 1519.32,1657.73 1520.76,1657.66"/>
    </edge>
    <edge id=":1679942640_3" function="internal">
        <lane id=":1679942640_3_0" index="0" disallow="tram rail_urban rail rail_electric rail_fast ship" speed="11.72" length="9.69" shape="1514.60,1650.59 1515.71,1653.20 1516.80,1654.86 1518.34,1656.15 1520.76,1657.66"/>
    </edge>
    <edge id=":1679942640_4" function="internal">
        <lane id=":1679942640_4_0" index="0" disallow="tram rail_urban rail rail_electric rail_fast ship" speed="8.87" length="3.21" shape="1514.60,1650.59 1515.29,1653.45 1515.27,1653.72"/>
    </edge>
    <edge id=":1679942640_5" function="internal">
        <lane id=":1679942640_5_0" index="0" disallow="tram rail_urban rail rail_electric rail_fast ship" speed="3.65" length="1.44" shape="1514.60,1650.59 1514.28,1652.00"/>
    </edge>
    <edge id=":1679942640_10" function="internal">
        <lane id=":1679942640_10_0" index="0" disallow="tram rail_urban rail rail_electric rail_fast ship" speed="8.87" length="8.47" shape="1515.27,1653.72 1515.11,1656.19 1514.06,1658.83 1512.16,1661.35"/>
    </edge>
    <edge id=":1679942640_11" function="internal">
        <lane id=":1679942640_11_0" index="0" disallow="tram rail_urban rail rail_electric rail_fast ship" speed="3.65" length="3.23" shape="1514.28,1652.00 1513.68,1652.66 1512.79,1652.57 1511.61,1651.74"/>
    </edge>
    <edge id=":1679942640_6" function="internal">
        <lane id=":1679942640_6_0" index="0" disallow="tram rail_urban rail rail_electric rail_fast ship" speed="7.47" length="8.06" shape="1509.84,1659.14 1511.18,1657.38 1511.92,1655.56 1512.07,1653.68 1511.61,1651.74"/>
    </edge>
    <edge id=":1679942640_7" function="internal">
        <lane id=":1679942640_7_0" index="0" disallow="tram rail_urban rail rail_electric rail_fast ship" speed="8.07" length="12.06" shape="1509.84,1659.14 1512.35,1657.13 1515.00,1656.21 1517.81,1656.39 1520.76,1657.66"/>
    </edge>
    <edge id=":1679942640_8" function="internal">
        <lane id=":1679942640_8_0" index="0" disallow="tram rail_urban rail rail_electric rail_fast ship" speed="3.65" length="4.67" shape="1509.84,1659.14 1511.24,1658.82 1512.10,1659.08 1512.40,1659.93 1512.16,1661.35"/>
    </edge>
    <edge id=":1679942642_0" function="internal">
        <lane id=":1679942642_0_0" index="0" disallow="tram rail_urban rail rail_electric rail_fast ship" speed="6.18" length="9.05" shape="1448.93,1459.31 1446.71,1458.07 1444.73,1457.92 1442.99,1458.87 1441.49,1460.93"/>
    </edge>
    <edge id=":1679942642_1" function="internal">
        <lane id=":1679942642_1_0" index="0" disallow="tram rail_urban rail rail_electric rail_fast ship" speed="13.89" length="15.27" shape="1448.93,1459.31 1436.77,1450.06"/>
    </edge>
    <edge id=":1679942642_2" function="internal">
        <lane id=":1679942642_2_0" index="0" disallow="tram rail_urban rail rail_electric rail_fast ship" speed="8.54" length="4.29" shape="1448.93,1459.31 1446.02,1456.38 1445.96,1456.23"/>
    </edge>
    <edge id=":1679942642_3" function="internal">
        <lane id=":1679942642_3_0" index="0" disallow="tram rail_urban rail rail_electric rail_fast ship" speed="3.65" length="1.44" shape="1448.93,1459.31 1448.46,1457.95"/>
    </edge>
    <edge id=":1679942642_16" function="internal">
        <lane id=":1679942642_16_0" index="0" disallow="tram rail_urban rail rail_electric rail_fast ship" speed="8.54" length="10.77" shape="1445.96,1456.23 1444.62,1453.19 1444.72,1449.76 1446.33,1446.08"/>
    </edge>
    <edge id=":1679942642_17" function="internal">
        <lane id=":1679942642_17_0" index="0" disallow="tram rail_urban rail rail_electric rail_fast ship" speed="3.65" length="3.23" shape="1448.46,1457.95 1448.63,1457.07 1449.44,1456.68 1450.88,1456.77"/>
    </edge>
    <edge id=":1679942642_4" function="internal">
        <lane id=":1679942642_4_0" index="0" disallow="tram rail_urban rail rail_electric rail_fast ship" speed="7.15" length="10.27" shape="1449.04,1447.76 1447.96,1450.26 1447.91,1452.59 1448.88,1454.76 1450.88,1456.77"/>
    </edge>
    <edge id=":1679942642_5" function="internal">
        <lane id=":1679942642_5_0" index="0" disallow="tram rail_urban rail rail_electric rail_fast ship" speed="13.89" length="15.17" shape="1449.04,1447.76 1441.49,1460.93"/>
    </edge>
    <edge id=":1679942642_6" function="internal">