<?xml version="1.0" encoding="UTF-8"?>

<!-- generated on 2022-08-18 16:32:51 by Eclipse SUMO polyconvert Version 1.13.0
<configuration xmlns:xsi="http://www.w3.org/2001/XMLSchema-instance" xsi:noNamespaceSchemaLocation="http://sumo.dlr.de/xsd/polyconvertConfiguration.xsd">

    <input>
        <net-file value="politecnico.net.xml"/>
        <osm-files value="mapa_politecnico.osm"/>
    </input>

    <output>
        <output-file value="politecnico.poly.xml"/>
    </output>

    <processing>
        <poi-layer-offset value="5"/>
    </processing>

</configuration>
-->

<additional xmlns:xsi="http://www.w3.org/2001/XMLSchema-instance" xsi:noNamespaceSchemaLocation="http://sumo.dlr.de/xsd/additional_file.xsd">
    <location netOffset="-676648.33,2817233.42" convBoundary="-0.00,-597.64,2796.41,2246.06" origBoundary="-49.243118,-25.466723,-49.215111,-25.441188" projParameter="+proj=utm +zone=22 +ellps=WGS84 +datum=WGS84 +units=m +no_defs"/>

    <poly id="1042062362" type="building" color="255,230,230" fill="1" layer="-1.00" shape="1548.282907,1775.894757 1604.032527,1748.054664 1594.352383,1728.895106 1538.602829,1756.735162 1548.282907,1775.894757"/>
    <poly id="1042062363" type="building" color="255,230,230" fill="1" layer="-1.00" shape="1494.368115,1779.835307 1524.462089,1790.968420 1541.180190,1746.308942 1511.086297,1735.175871 1494.368115,1779.835307"/>
    <poly id="1042062390" type="building" color="255,230,230" fill="1" layer="-1.00" shape="1431.355720,1768.319650 1434.208983,1780.169341 1442.541761,1778.186314 1439.688491,1766.336624 1431.355720,1768.319650"/>
    <poly id="1042062391" type="building" color="255,230,230" fill="1" layer="-1.00" shape="1420.210043,1782.692944 1426.276544,1795.629993 1437.003920,1790.657109 1430.937410,1777.720064 1420.210043,1782.692944"/>
    <poly id="1042062392" type="building" color="255,230,230" fill="1" layer="-1.00" shape="1442.244785,1755.833157 1444.817926,1765.526194 1462.029253,1760.998925 1459.456248,1751.316968 1442.244785,1755.833157"/>
    <poly id="1042939930" type="building" color="255,230,230" fill="0" layer="-1.00" shape="1042.896463,1015.893611 1026.134172,1023.117686 1023.571730,1017.235566 1057.516315,1002.604569 1054.372764,995.378543"/>
    <poly id="1042940039" type="building" color="255,230,230" fill="0" layer="-1.00" shape="922.286243,1166.303060 967.074870,1147.905866 962.762843,1137.515685 955.739085,1120.602780 952.268834,1112.251023"/>
    <poly id="1049551139" type="water" color="181,209,209" fill="0" layer="-4.00" shape="641.389895,1586.086332 640.011796,1569.353419 639.680268,1561.779907 639.028721,1555.108010 636.724625,1546.696443"/>
    <poly id="124769359" type="tourism" color="207,245,201" fill="0" layer="-2.00" shape="1308.827048,1452.471737 1312.613615,1425.533119 1315.768627,1398.757989"/>
    <poly id="155294058" type="shop" color="237,199,255" fill="1" layer="-1.00" shape="1602.310440,924.286971 1635.172278,937.953195 1653.726246,945.971165 1658.227031,950.099089 1659.105662,953.388900 1659.300878,956.721041 1659.400253,963.433512 1632.076636,1002.395819 1575.919383,1082.533922 1513.015249,1024.452997 1602.310440,924.286971"/>
    <poly id="155305314" type="building" color="255,230,230" fill="1" layer="-1.00" shape="1395.799106,1152.110314 1396.357774,1155.548414 1398.681694,1157.090736 1400.907450,1158.058261 1446.855612,1170.188402 1453.043297,1171.823393 1469.012175,1176.042704 1471.465878,1169.185519 1500.402747,1136.506028 1524.414418,1109.398138 1525.207183,1108.501290 1534.443187,1098.075154 1515.079957,1079.886301 1524.950956,1070.315879 1497.905601,1043.997551 1431.577154,1114.221662 1395.799106,1152.110314"/>
    <poly id="155305314#1" type="shop" color="237,199,255" fill="1" layer="-1.00" shape="1395.799106,1152.110314 1396.357774,1155.548414 1398.681694,1157.090736 1400.907450,1158.058261 1446.855612,1170.188402 1453.043297,1171.823393 1469.012175,1176.042704 1471.465878,1169.185519 1500.402747,1136.506028 1524.414418,1109.398138 1525.207183,1108.501290 1534.443187,1098.075154 1515.079957,1079.886301 1524.950956,1070.315879 1497.905601,1043.997551 1431.577154,1114.221662 1395.799106,1152.110314"/>
    <poly id="160117258" type="tourism" color="207,245,201" fill="1" layer="-2.00" shape="723.878853,703.432107 726.694675,712.512696 776.842045,791.272792 782.327641,797.636947 777.591173,806.828609 777.147561,814.345920 786.404386,820.660138 793.928429,818.411214 802.443296,809.712371 790.470038,801.827707 788.772748,795.945173 795.078959,782.245798 798.217341,775.424001 812.487884,753.232476 830.944721,761.574104 868.429992,780.399008 872.900695,792.149803 866.058915,805.656897 894.237571,814.401433 910.546617,823.846064 932.552494,835.851941 941.147726,852.954523 943.939571,862.489627 942.056919,871.466268 940.250092,880.851821 935.716583,894.727196 936.982826,905.268535 927.962697,923.657051 898.369839,947.879722 842.486988,976.882086 833.286618,979.396968 821.878489,965.588749 802.880621,924.006730 793.441051,908.455206 782.683186,899.690288 778.941332,892.084373 770.475921,880.973621 767.659896,871.881963 780.961176,857.757617 781.895108,847.009878 773.309217,850.347499 765.813458,854.734247 760.799926,843.001688 762.819986,832.239572 759.468103,823.697869 760.409235,813.492899 749.042848,810.419449 738.827807,813.778618 731.733175,807.435746 732.818686,803.577028 734.307510,798.272725 753.158261,795.342092 759.027695,790.434019 760.025579,784.515799 743.560819,757.978446 719.806113,721.732827 713.201863,712.159523 707.740466,706.858590 704.402866,699.391332 704.732881,683.289448 711.784917,686.420037 719.401269,691.149581 723.878853,703.432107"/>
    <poly id="163297317" type="parking" color="184,184,179" fill="0" layer="-1.00" shape="952.719044,1056.662605 956.099004,1053.648686 959.898630,1052.700943 963.309123,1051.991012 965.925499,1052.078202 969.603121,1054.067962 972.626688,1059.833191 973.423524,1063.035488 974.995027,1069.285273 986.219748,1093.520982 986.180409,1099.659172 985.255259,1103.471472 979.982925,1110.177572 979.895864,1111.197977 979.088386,1120.093897"/>
    <poly id="163297328" type="parking" color="184,184,179" fill="0" layer="-1.00" shape="985.601035,1134.110915 989.002079,1133.445420 997.130201,1131.986061 1002.859081,1136.197624 1017.204716,1172.013628 1031.090812,1207.303931 1031.935450,1208.799453"/>
    <poly id="163297340" type="parking" color="184,184,179" fill="0" layer="-1.00" shape="920.988767,984.882408 924.170080,980.541669 930.628844,979.115544 936.873031,981.990842 941.019173,991.253186 952.781844,1022.694101 952.553912,1025.987533 950.722037,1029.689980 947.391118,1033.367978 945.953574,1042.538136"/>
    <poly id="163507223" type="parking" color="184,184,179" fill="0" layer="-1.00" shape="945.953574,1042.538136 942.882090,1035.433000 935.899287,1019.328299 925.720387,995.820979 920.988767,984.882408"/>
    <poly id="164245898" type="building" color="255,230,230" fill="1" layer="-1.00" shape="1131.524489,1034.272263 1162.142314,1021.358035 1167.457903,1033.839824 1145.622285,1043.048006 1136.850109,1046.753929 1131.524489,1034.272263"/>
    <poly id="164246108" type="building" color="255,230,230" fill="1" layer="-1.00" shape="1384.935463,1108.171905 1375.216707,1099.681671 1370.079302,1075.642345 1380.049049,1065.926700 1410.904531,1051.225041 1426.230027,1065.324197 1384.935463,1108.171905"/>
    <poly id="164246577" type="amenity" color="237,199,199" fill="1" layer="-1.00" shape="1276.841692,1095.747852 1285.937452,1092.170487 1284.085274,1087.519808 1290.749577,1084.905345 1287.981513,1077.940271 1294.645664,1075.314729 1289.661079,1062.773192 1267.236894,1071.590551 1270.733188,1080.373969 1276.841692,1095.747852"/>
    <poly id="164246577#1" type="building" color="255,230,230" fill="1" layer="-1.00" shape="1276.841692,1095.747852 1285.937452,1092.170487 1284.085274,1087.519808 1290.749577,1084.905345 1287.981513,1077.940271 1294.645664,1075.314729 1289.661079,1062.773192 1267.236894,1071.590551 1270.733188,1080.373969 1276.841692,1095.747852"/>
    <poly id="182920481" type="landuse" color="194,194,130" fill="0" layer="-3.00" shape="1286.047627,1392.150771 1291.350411,1399.104353 1299.226855,1402.921689 1307.996603,1402.805251 1315.768627,1398.757989"/>
    <poly id="183003687" type="landuse" color="194,194,130" fill="0" layer="-3.00" shape="1308.827048,1452.471737 1287.552932,1397.947176 1286.047627,1392.150771"/>
    <poly id="227882873" type="residential" color="235,235,227" fill="1" layer="-3.00" shape="2074.710273,1260.099748 1938.810971,1328.384614 1960.310800,1386.816166 2046.205254,1536.344031 1950.210706,1589.051613 1820.545413,1649.131093 1754.525902,1680.720549 1491.450860,1810.861602 1478.083220,1703.441507 1507.715013,1663.163860 1507.420564,1641.010080 1529.933783,1594.179668 1559.741886,1567.194151 1602.978436,1564.403461 1612.103560,1569.821533 1857.066547,1181.382305 1878.933604,1212.300218 2016.830588,1144.543197 2177.258396,1104.735200 2289.387160,1142.014639 2250.975283,1251.444112 2229.258864,1312.523880 2125.546906,1275.907107 2074.710273,1260.099748"/>
    <poly id="232699562" type="amenity" color="237,199,199" fill="1" layer="-1.00" shape="1057.843709,883.181513 1055.489605,877.839499 1061.652915,875.375813 1063.837233,880.808709 1057.843709,883.181513"/>
    <poly id="232699562#1" type="building" color="255,230,230" fill="1" layer="-1.00" shape="1057.843709,883.181513 1055.489605,877.839499 1061.652915,875.375813 1063.837233,880.808709 1057.843709,883.181513"/>
    <poly id="24603079" type="tourism" color="207,245,201" fill="0" layer="-2.00" shape="1315.768627,1398.757989 1334.675833,1390.928995 1344.900423,1389.020598 1360.398724,1387.330201 1369.851313,1387.127100"/>
    <poly id="24603126" type="parking" color="184,184,179" fill="0" layer="-1.00" shape="802.660282,1302.373268 796.997572,1296.321662 803.990042,1294.168421 816.991028,1288.479026 862.800883,1268.163143 909.870587,1247.287540 915.180577,1244.934952 917.547992,1244.449354 919.547773,1245.065430 921.267135,1245.773851 922.250651,1247.123515 923.226968,1249.448209 924.660174,1252.852575 925.096507,1253.899281"/>
    <poly id="24610282" type="university" color="237,199,199" fill="1" layer="-2.00" shape="675.995386,1254.815565 740.867875,1338.721015 745.399819,1339.137420 762.923007,1340.722397 782.644554,1352.603697 795.585474,1367.444157 801.497282,1383.950863 802.993508,1393.636090 804.225635,1401.607598 801.984308,1416.937108 798.123064,1426.914841 816.590397,1472.447971 864.935520,1620.729138 910.747638,1763.005780 934.790475,1832.228983 970.639512,1877.653547 975.701518,1881.619163 980.868070,1884.364722 985.653477,1885.675085 990.104425,1886.037100 994.598908,1885.888911 999.351436,1884.718050 1005.058023,1882.670396 1008.099618,1881.433576 1012.245401,1877.744781 1018.390550,1872.356586 1217.555120,1591.348839 1229.100124,1573.713238 1243.255876,1553.461607 1287.806249,1493.554176 1297.221065,1481.408648 1301.249680,1473.455951 1302.517260,1464.376632 1302.169064,1457.091380 1284.360542,1405.999557 1276.315258,1387.948149 1284.857114,1383.547240 1291.241767,1392.436335 1295.058657,1395.055660 1297.723072,1396.482692 1300.497877,1397.132739 1303.630766,1397.478903 1304.469969,1397.046764 1305.625521,1394.682708 1307.017847,1390.454262 1308.707660,1381.358257 1321.062093,1302.744942 1323.170527,1275.939385 1329.848465,1243.289987 1335.565381,1199.629896 1338.560310,1175.958947 1338.446776,1160.594098 1337.910587,1149.001670 1335.733566,1136.555804 1323.766262,1088.266953 1331.194755,1081.088915 1319.018167,1033.700227 1316.981646,1025.772662 1299.499232,1022.692248 1289.225687,1016.347543 1276.188862,1008.698979 1257.741163,998.064480 1236.129384,984.724407 1230.304916,980.890892 1219.634637,984.057048 1160.713370,951.569249 1158.666630,950.444208 1145.945698,955.221790 1144.141286,954.924444 1142.006241,953.966755 1139.322403,952.584272 1129.482754,946.333406 1090.752814,919.427058 1086.091548,916.076604 1082.820668,912.142686 1056.448141,849.243401 1021.959577,863.781929 1018.905893,865.606110 1017.252647,866.846701 1015.719864,868.827977 1016.504366,871.099814 1029.239439,882.563729 1023.915979,888.439621 1020.932400,891.758514 956.368454,840.233718 921.673804,762.565658 879.580674,778.578376 726.386768,696.851329 741.139832,673.877975 773.189700,659.771282 761.202110,630.283097 777.852894,608.591865 783.719348,598.908842 845.573771,586.501125 768.003186,533.186908 679.511314,472.361376 613.614816,427.056914 604.776545,441.709250 426.089759,738.103438 617.923535,860.690953 477.942198,1068.507931 514.628556,1084.707648 561.240336,1105.285096 621.116353,1174.289645 638.037162,1198.029262 654.273682,1223.262474 675.995386,1254.815565"/>
    <poly id="24753443" type="amenity" color="237,199,199" fill="1" layer="-1.00" shape="270.083292,1002.243948 264.703845,999.334775 264.347711,994.453734 293.618195,942.683871 305.686596,929.606645 319.138730,916.965362 372.666382,823.839072 426.089759,738.103438 617.923535,860.690953 477.942198,1068.507931 462.718392,1062.781988 270.083292,1002.243948"/>
    <poly id="24878162" type="tourism" color="207,245,201" fill="1" layer="-2.00" shape="1001.540616,1986.913246 1008.673968,1975.629115 1041.621363,1923.520857 1115.928991,1813.553351 1134.665288,1789.751298 1143.391610,1781.791755 1151.695317,1784.440245 1160.993653,1792.304743 1125.859263,1890.308683 1122.515279,1913.496685 1121.378835,1921.100747 1117.330383,1974.609737 1095.671379,1979.051481 1072.306847,1982.319286 1054.793482,1984.578870 1019.263943,1986.833476 1001.540616,1986.913246"/>
    <poly id="24897177" type="building" color="255,230,230" fill="1" layer="-1.00" shape="523.807454,1473.175001 542.903241,1513.814387 557.939054,1506.802149 563.698583,1520.940092 550.491053,1527.008625 567.620429,1562.699603 583.340076,1556.431657 569.875548,1525.566909 580.787852,1519.362524 596.384372,1554.752454 613.491881,1548.466117 571.810334,1464.209125 554.722935,1471.248507 565.331810,1493.830849 554.389401,1498.517826 537.455453,1465.427770 523.807454,1473.175001"/>
    <poly id="24897178" type="building" color="255,230,230" fill="1" layer="-1.00" shape="518.023405,1452.611669 556.222796,1434.812683 534.175189,1390.777914 514.273262,1401.000835 519.100596,1410.065949 511.535162,1413.777638 506.957208,1404.554123 496.386089,1409.169677 518.023405,1452.611669"/>
    <poly id="24897178#1" type="landuse" color="194,194,130" fill="1" layer="-3.00" shape="518.023405,1452.611669 556.222796,1434.812683 534.175189,1390.777914 514.273262,1401.000835 519.100596,1410.065949 511.535162,1413.777638 506.957208,1404.554123 496.386089,1409.169677 518.023405,1452.611669"/>
    <poly id="24897223" type="leisure" color="207,245,201" fill="1" layer="-2.00" shape="643.694804,730.827654 654.246378,757.465518 672.368029,750.367931 661.816422,723.730080 643.694804,730.827654"/>
    <poly id="24897223#1" type="sport" color="79,230,125" fill="1" layer="-2.00" shape="643.694804,730.827654 654.246378,757.465518 672.368029,750.367931 661.816422,723.730080 643.694804,730.827654"/>
    <poly id="24897310" type="leisure" color="207,245,201" fill="1" layer="-2.00" shape="733.668863,990.897406 790.453482,967.688874 749.739765,869.139014 692.955519,892.347397 733.668863,990.897406"/>
    <poly id="24897310#1" type="sport" color="79,230,125" fill="1" layer="-2.00" shape="733.668863,990.897406 790.453482,967.688874 749.739765,869.139014 692.955519,892.347397 733.668863,990.897406"/>
    <poly id="24897311" type="leisure" color="207,245,201" fill="1" layer="-2.00" shape="658.823598,1025.855538 715.618534,1002.647208 674.915356,904.097018 618.120794,927.305199 658.823598,1025.855538"/>
    <poly id="24897311#1" type="sport" color="79,230,125" fill="1" layer="-2.00" shape="658.823598,1025.855538 715.618534,1002.647208 674.915356,904.097018 618.120794,927.305199 658.823598,1025.855538"/>
    <poly id="258950935" type="amenity" color="237,199,199" fill="1" layer="-1.00" shape="1054.794804,876.264440 1052.793204,871.715427 1054.643694,870.937526 1058.053764,869.440976 1060.065422,873.989855 1054.794804,876.264440"/>
    <poly id="258950935#1" type="building" color="255,230,230" fill="1" layer="-1.00" shape="1054.794804,876.264440 1052.793204,871.715427 1054.643694,870.937526 1058.053764,869.440976 1060.065422,873.989855 1054.794804,876.264440"/>
    <poly id="258951050" type="building" color="255,230,230" fill="1" layer="-1.00" shape="1206.907405,1437.062300 1203.674560,1429.183834 1213.729581,1425.106339 1216.962431,1432.984803 1206.907405,1437.062300"/>
    <poly id="259655332" type="amenity" color="237,199,199" fill="1" layer="-1.00" shape="1048.429278,871.064253 1046.445297,866.326665 1051.726263,864.074104 1052.826199,866.618727 1053.760088,868.777793 1048.429278,871.064253"/>
    <poly id="259655332#1" type="building" color="255,230,230" fill="1" layer="-1.00" shape="1048.429278,871.064253 1046.445297,866.326665 1051.726263,864.074104 1052.826199,866.618727 1053.760088,868.777793 1048.429278,871.064253"/>
    <poly id="259655333" type="amenity" color="237,199,199" fill="1" layer="-1.00" shape="1042.834499,884.543829 1040.424830,878.803712 1046.286737,876.366188 1048.696555,882.117382 1042.834499,884.543829"/>
    <poly id="259655333#1" type="building" color="255,230,230" fill="1" layer="-1.00" shape="1042.834499,884.543829 1040.424830,878.803712 1046.286737,876.366188 1048.696555,882.117382 1042.834499,884.543829"/>
    <poly id="259655334" type="farm" color="242,242,204" fill="0" layer="-3.00" shape="1081.368000,924.714270 1085.707042,931.071364 1090.025534,937.395492 1103.734632,963.891481"/>
    <poly id="259655335" type="amenity" color="237,199,199" fill="1" layer="-1.00" shape="1035.234761,873.499301 1033.455002,868.991659 1038.838446,866.881769 1040.618207,871.389410 1035.234761,873.499301"/>
    <poly id="259655335#1" type="building" color="255,230,230" fill="1" layer="-1.00" shape="1035.234761,873.499301 1033.455002,868.991659 1038.838446,866.881769 1040.618207,871.389410 1035.234761,873.499301"/>
    <poly id="259655337" type="amenity" color="237,199,199" fill="1" layer="-1.00" shape="1041.320153,865.918238 1040.031269,862.777863 1044.273248,861.059787 1045.583128,864.266357 1041.320153,865.918238"/>
    <poly id="259655337#1" type="building" color="255,230,230" fill="1" layer="-1.00" shape="1041.320153,865.918238 1040.031269,862.777863 1044.273248,861.059787 1045.583128,864.266357 1041.320153,865.918238"/>
    <poly id="259655338" type="amenity" color="237,199,199" fill="1" layer="-1.00" shape="1061.151673,890.671249 1059.005163,885.813951 1063.957791,883.831631 1065.984504,888.756990 1061.151673,890.671249"/>
    <poly id="259655338#1" type="building" color="255,230,230" fill="1" layer="-1.00" shape="1061.151673,890.671249 1059.005163,885.813951 1063.957791,883.831631 1065.984504,888.756990 1061.151673,890.671249"/>
    <poly id="259655394" type="forest" color="140,196,107" fill="1" layer="-4.00" shape="489.272209,1393.011114 482.130385,1382.347997 472.673752,1372.346960 458.565280,1357.421934 445.456036,1348.842916 429.607135,1338.461006 423.831522,1327.657945 421.944316,1319.573207 431.069302,1292.298535 432.590220,1273.422341 431.199126,1270.150321 456.240149,1237.037293 464.710377,1224.162589 474.726050,1207.212615 478.209760,1201.383443 485.502516,1197.597816 494.279273,1198.024669 505.359768,1203.040921 513.141379,1206.560821 544.467916,1247.182528 563.011927,1271.210980 576.162839,1288.264613 595.087615,1313.694999 625.529549,1289.683451 687.186866,1382.239902 685.557060,1422.510754 689.115009,1433.697583 693.991671,1435.837739 696.570569,1440.689368 693.433481,1454.468591 685.403650,1477.818159 675.220275,1491.214212 671.025796,1506.425502 669.499280,1522.576429 663.045782,1544.952346 648.693376,1553.440221 639.028721,1555.108010 631.687452,1555.238347 621.881937,1553.861318 617.204949,1543.243214 614.157431,1537.943538 615.018127,1531.528611 618.880594,1530.757407 621.796199,1535.970196 624.118684,1542.730782 626.586944,1547.583886 630.285288,1548.853348 636.724625,1546.696443 640.518621,1539.987903 640.997166,1529.778001 639.522652,1524.767731 642.046473,1519.372210 642.086040,1513.998469 638.231741,1506.261056 635.341326,1500.671259 629.133944,1499.069384 623.442509,1499.211133 620.291665,1500.549025 615.217412,1497.159550 607.141355,1489.644145 608.175115,1481.864238 610.642367,1480.557547 616.855678,1477.284680 606.788899,1462.993223 601.160797,1461.837907 587.282144,1458.985849 565.187132,1441.806746 562.039036,1435.743954 534.490245,1382.652994 489.272209,1393.011114"/>
    <poly id="259737909" type="parking" color="184,184,179" fill="0" layer="-1.00" shape="1028.080636,934.749301 1015.181234,940.481903 1018.757415,948.477718 1020.737283,952.905157 1049.579670,940.369240 1055.920211,937.615160"/>
    <poly id="259737911" type="tourism" color="207,245,201" fill="0" layer="-2.00" shape="1129.319579,1109.936707 1125.376000,1111.407111 1123.379640,1114.081435 1119.228800,1119.642676 1117.507302,1124.839326 1119.440826,1128.802057 1123.783717,1137.718302 1128.903212,1148.308226 1133.177186,1157.336171 1137.431245,1164.104297"/>
    <poly id="259737917" type="farm" color="242,242,204" fill="0" layer="-3.00" shape="1063.753204,957.142971 1060.221663,963.892497 1059.433284,965.121624 1057.107641,968.753084 1055.299227,973.463411 1055.230771,978.161743 1056.297923,983.542982 1059.493293,990.125748 1067.791467,1006.046768 1071.323929,1012.259460 1074.312784,1014.646086 1078.061173,1015.903675 1083.290483,1018.094402 1084.757086,1018.706444 1090.103619,1019.876361"/>
    <poly id="259737919" type="farm" color="242,242,204" fill="0" layer="-3.00" shape="1099.650972,1038.971501 1096.277790,1040.977195 1093.151845,1043.422763 1089.348797,1046.386937 1088.017738,1049.927659 1087.541664,1054.985920 1088.086948,1056.662670 1090.332390,1063.667946 1095.244234,1073.773165 1100.261861,1083.511379 1104.130639,1090.051968 1106.100759,1091.466084 1110.890542,1093.884209 1116.334002,1094.775862 1120.033374,1095.369361 1123.615885,1096.252460"/>
    <poly id="259751772" type="forest" color="140,196,107" fill="1" layer="-4.00" shape="1623.991323,1393.465294 1517.380625,1303.637492 1567.495519,1244.796112 1674.116204,1334.623380 1623.991323,1393.465294"/>
    <poly id="259751773" type="amenity" color="237,199,199" fill="1" layer="-1.00" shape="1316.722523,860.845323 1311.663064,849.479148 1329.376409,841.942927 1334.243923,853.245174 1316.722523,860.845323"/>
    <poly id="259751773#1" type="building" color="255,230,230" fill="1" layer="-1.00" shape="1316.722523,860.845323 1311.663064,849.479148 1329.376409,841.942927 1334.243923,853.245174 1316.722523,860.845323"/>
    <poly id="259751774" type="forest" color="140,196,107" fill="1" layer="-4.00" shape="1451.907791,1448.189286 1522.481679,1337.781177 1570.470909,1375.509202 1542.718105,1419.351628 1516.404967,1442.113950 1505.471371,1438.359530 1489.356734,1464.066149 1485.442152,1473.778932 1451.907791,1448.189286"/>
    <poly id="259852605" type="landuse" color="194,194,130" fill="1" layer="-3.00" shape="1271.976039,839.891180 1269.724883,833.218369 1268.111745,828.387254 1268.081245,826.847700 1268.462183,825.236209 1269.740955,823.823296 1271.278937,822.994119 1272.825743,822.829555 1274.113578,822.856771 1275.805093,823.742776 1278.756941,828.644745 1292.713708,857.862670 1304.778621,892.312766 1319.246977,956.256059 1323.538991,983.297914 1324.362977,988.538344 1324.361641,990.709815 1323.279231,992.518964 1321.714004,993.570084 1318.882416,993.940055 1316.183290,992.923410 1315.276084,991.262553 1313.698193,985.300931 1297.367870,923.542735 1283.671364,877.570142 1280.632412,862.321688 1271.976039,839.891180"/>
    <poly id="259852617" type="landuse" color="194,194,130" fill="1" layer="-3.00" shape="1260.033702,815.421473 1261.123416,818.708500 1263.602637,819.074421 1268.681649,815.251256 1271.264396,813.566215 1269.255116,809.959033 1267.802939,810.432547 1260.033702,815.421473"/>
    <poly id="259852618" type="landuse" color="194,194,130" fill="1" layer="-3.00" shape="1250.389186,798.864782 1253.712854,805.257464 1257.237405,807.082993 1261.293892,807.306106 1262.801170,805.679661 1263.572221,802.390085 1262.534555,799.235313 1257.947709,789.369569 1245.963340,750.364967 1237.798313,734.630620 1193.896929,638.628032 1189.300446,637.880286 1186.362309,640.068578 1185.600426,643.291555 1201.235882,683.067569 1236.570961,764.160955 1250.389186,798.864782"/>
    <poly id="260101461" type="building" color="255,230,230" fill="1" layer="-1.00" shape="1163.234286,1004.348611 1158.058160,990.247461 1156.899681,987.083207 1175.879197,980.195139 1182.223881,997.460403 1163.234286,1004.348611"/>
    <poly id="260101463" type="building" color="255,230,230" fill="1" layer="-1.00" shape="1138.871759,991.399410 1131.470528,974.857192 1123.190733,978.523341 1117.530778,965.857766 1134.170363,958.491171 1136.419829,963.524355 1159.009191,953.519579 1165.373764,967.737905 1154.113980,972.717682 1158.571236,982.673808 1152.861472,985.209070 1138.871759,991.399410"/>
    <poly id="260101464" type="building" color="255,230,230" fill="1" layer="-1.00" shape="825.299901,1070.515215 814.467139,1044.712089 847.268665,1031.093877 858.101629,1056.908057 825.299901,1070.515215"/>
    <poly id="260101466" type="building" color="255,230,230" fill="1" layer="-1.00" shape="780.338867,1084.238967 771.358533,1063.873140 787.539752,1056.812195 788.929305,1059.962337 783.689037,1062.258562 785.679775,1066.752359 794.950484,1062.707708 791.818592,1055.592264 811.840025,1046.851854 820.581773,1066.666876 780.338867,1084.238967"/>
    <poly id="260101470" type="building" color="255,230,230" fill="1" layer="-1.00" shape="732.547691,1080.971892 753.048695,1071.981494 740.265117,1043.168549 719.774207,1052.158797 732.547691,1080.971892"/>
    <poly id="260101471" type="parking" color="184,184,179" fill="1" layer="-1.00" shape="1073.788471,1293.673335 1058.448774,1257.250143 1063.039822,1248.470229 1061.361862,1236.471952 1096.603955,1221.037096 1098.799232,1221.982917 1100.963683,1223.638192 1102.240630,1225.116898 1105.249663,1229.021051 1108.102489,1233.281799 1126.803424,1281.193419 1073.788471,1293.673335"/>
    <poly id="260101473" type="building" color="255,230,230" fill="1" layer="-1.00" shape="1247.785640,1018.703581 1253.800089,1008.054522 1263.731000,1013.595046 1257.726760,1024.255053 1247.785640,1018.703581"/>
    <poly id="260101495" type="parking" color="184,184,179" fill="0" layer="-1.00" shape="1144.194713,1063.573868 1139.082293,1065.646963 1127.056337,1070.503929 1131.661970,1081.787555"/>
    <poly id="260101496" type="parking" color="184,184,179" fill="0" layer="-1.00" shape="1169.475610,1105.548509 1167.172951,1099.541098 1155.963465,1071.172909 1181.770588,1061.081099 1183.987503,1066.690808"/>
    <poly id="260102916" type="building" color="255,230,230" fill="1" layer="-1.00" shape="1341.733889,943.848216 1338.336030,935.661764 1356.443311,928.242151 1360.165790,936.634785 1341.733889,943.848216"/>
    <poly id="260144029" type="building" color="255,230,230" fill="1" layer="-1.00" shape="1194.834826,765.368617 1203.952251,761.923950 1193.280608,733.903178 1184.163201,737.347839 1194.834826,765.368617"/>
    <poly id="260144030" type="building" color="255,230,230" fill="1" layer="-1.00" shape="1160.579259,781.521947 1170.701685,777.255212 1161.036066,754.549991 1150.913655,758.816719 1160.579259,781.521947"/>
    <poly id="260144032" type="building" color="255,230,230" fill="1" layer="-1.00" shape="1172.208736,774.853262 1181.904749,771.046410 1172.549458,747.472927 1162.843404,751.279907 1172.208736,774.853262"/>
    <poly id="260144033" type="building" color="255,230,230" fill="1" layer="-1.00" shape="1183.335194,770.451326 1193.850694,766.245828 1184.240735,742.431998 1173.725253,746.637489 1183.335194,770.451326"/>
    <poly id="260144035" type="amenity" color="237,199,199" fill="1" layer="-1.00" shape="1150.098526,785.317038 1159.058805,781.398098 1150.265526,761.517477 1141.305259,765.436412 1150.098526,785.317038"/>
    <poly id="260144037" type="building" color="255,230,230" fill="1" layer="-1.00" shape="1206.071598,760.943038 1212.674965,758.296175 1205.135186,739.650854 1198.531827,742.297715 1206.071598,760.943038"/>
    <poly id="260204609" type="parking" color="184,184,179" fill="1" layer="-1.00" shape="1483.930614,964.271541 1505.751216,981.951367 1512.396602,974.894416 1511.084703,973.815051 1496.592902,961.898522 1492.484336,958.518695 1485.206801,958.881331 1483.930614,964.271541"/>
    <poly id="260204610" type="building" color="255,230,230" fill="1" layer="-1.00" shape="695.357730,846.615513 713.606705,839.250302 724.594736,866.170395 706.345875,873.546696 699.339155,856.367566 695.357730,846.615513"/>
    <poly id="260204611" type="building" color="255,230,230" fill="1" layer="-1.00" shape="532.076929,740.624256 546.949916,733.536563 583.799688,810.057969 568.926629,817.145699 532.076929,740.624256"/>
    <poly id="260204612" type="parking" color="184,184,179" fill="1" layer="-1.00" shape="1521.649222,1025.490407 1540.254779,1004.857924 1583.795377,1044.727813 1585.173802,1052.320657 1584.880960,1058.284979 1574.313202,1072.185470 1521.649222,1025.490407"/>
    <poly id="260204615" type="building" color="255,230,230" fill="1" layer="-1.00" shape="675.177991,793.970179 703.297454,782.297639 718.295060,818.060950 690.175530,829.733518 675.177991,793.970179"/>
    <poly id="260204617" type="parking" color="184,184,179" fill="1" layer="-1.00" shape="717.748286,769.155230 743.560819,757.978446 758.631131,792.389141 732.818686,803.577028 717.748286,769.155230"/>